.MODEL DEP1 NMOS LEVEL=3  RSH=0 TOX=330E-10 LD=.19E-6  XJ=.27E-6
+ VMAX=13E4 ETA=.25 KAPPA=.5 NSUB=50E14 UO=650 THETA=.04 
+ VTO=-2.078 CGSO=2.43E-10 CGDO=2.43E-10 CJ=6.9E-5 CJSW=3.3E-10
+ PB=.7 MJ=.5 MJSW=.3 NFS=1E10

