* DMDA920 model created using Parts version 1.03 on 01/25/88 at 11:31
*
.model DMDA920 D(Is=37.6f Rs=.1005 N=1 Xti=3 Eg=1.11 Bv=200 Ibv=100u Cjo=1p
+  Vj=.75 M=.3333 Fc=.5 Tt=5n)
