*
.MODEL ENH2 PMOS(NSUB=2.2E15 UO=575 UCRIT=49K
+ UEXP=0.1 TOX=0.11U XJ=2.95U LEVEL=2
+ CGSO=1.5N CGDO=1.5N CBD=4.5F CBS=4.5F
+ NSS=3.2E10)

