* HH model created using Parts: Version 1.02 - August 1986
*
.MODEL HH NMOS(LEVEL=3 GAMMA=0 DELTA=0 ETA=0 THETA=0 KAPPA=0 VMAX=0 XJ=0
+  TOX=100N UO=600 PHI=.6 RS=20M KP=20U W=.5 L=2U VTO=3 RD=10M RDS=1MEG CBD=1N
+  PB=.8 MJ=.5 FC=.5 CGSO=4N CGDO=1N RG=5 IS=10F)
