.MODEL NSS NMOS LEVEL=3 RSH=0 TOX=275E-10 LD=.1E-6 XJ=.14E-6
+ CJ=1.6E-4 CJSW=1.8E-10 UO=550 VTO=1.022 CGSO=1.3E-10
+ CGDO=1.3E-10 NSUB=4E15 NFS=1E10
+ VMAX=12E4 PB=.7 MJ=.5 MJSW=.3 THETA=.06 KAPPA=.4 ETA=.14

