*
.MODEL PFET PJF(VTO=-2.0 BETA=1E-4 LAMBDA=0 RD=0 RS=0 CGD=0 CGS=0
+  FC=0.5 PB=1.0 IS=1E-14 KF=0 AF=1)

