.MODEL PSS PMOS LEVEL=3 RSH=0 TOX=275E-10 LD=.3E-6 XJ=.42E-6
+ CJ=7.7E-4 CJSW=5.4E-10 UO=180 VTO=-1.046 CGSO=4E-10
+ CGDO=4E-10 TPG=-1 NSUB=7E15 NFS=1E10
+ VMAX=12E4 PB=.7 MJ=.5 MJSW=.3 ETA=.06 THETA=.03 KAPPA=.4

