.MODEL QNL NPN (BF=80 RB=100 CCS=2PF TF=0.3NS TR=6NS CJE=3PF
+CJC=2PF VA=50)

