* RELAY model created using Parts: Version 1.02 - August 1986
*
.MODEL RELAY NMOS(LEVEL=3 GAMMA=0 DELTA=0 ETA=0 THETA=0 KAPPA=0 VMAX=0 XJ=0
+  TOX=100N UO=600 PHI=.6 RS=0 KP=20U W=.5 L=2U VTO=-2.325 RD=0 RDS=1MEG
+  CBD=10.21E-27 PB=.8 MJ=.5 FC=.5 CGSO=1E-27 CGDO=1E-27 RG=5 IS=10F)
